<routes>
    <vType accel="1.0" decel="4.5" id="standard_car" length="5.0" minGap="2.5" maxSpeed="25" sigma="0.5" />
    <route id="W_N" edges="W2TL TL2N"/>
    <route id="W_E" edges="W2TL TL2E"/>
    <route id="W_S" edges="W2TL TL2S"/>
    <route id="N_W" edges="N2TL TL2W"/>
    <route id="N_E" edges="N2TL TL2E"/>
    <route id="N_S" edges="N2TL TL2S"/>
    <route id="E_W" edges="E2TL TL2W"/>
    <route id="E_N" edges="E2TL TL2N"/>
    <route id="E_S" edges="E2TL TL2S"/>
    <route id="S_W" edges="S2TL TL2W"/>
    <route id="S_N" edges="S2TL TL2N"/>
    <route id="S_E" edges="S2TL TL2E"/>
<vehicle id="E_W_0" type="standard_car" route="E_W" depart="26.0" departLane="random" departSpeed="10" />
<vehicle id="W_E_1" type="standard_car" route="W_E" depart="26.0" departLane="random" departSpeed="10" />
<vehicle id="S_N_2" type="standard_car" route="S_N" depart="37.0" departLane="random" departSpeed="10" />
<vehicle id="N_S_3" type="standard_car" route="N_S" depart="48.0" departLane="random" departSpeed="10" />
<vehicle id="S_N_4" type="standard_car" route="S_N" depart="53.0" departLane="random" departSpeed="10" />
<vehicle id="W_E_5" type="standard_car" route="W_E" depart="58.0" departLane="random" departSpeed="10" />
<vehicle id="N_W_6" type="standard_car" route="N_W" depart="66.0" departLane="random" departSpeed="10" />
<vehicle id="N_E_7" type="standard_car" route="N_E" depart="70.0" departLane="random" departSpeed="10" />
<vehicle id="W_E_8" type="standard_car" route="W_E" depart="72.0" departLane="random" departSpeed="10" />
<vehicle id="N_E_9" type="standard_car" route="N_E" depart="77.0" departLane="random" departSpeed="10" />
<vehicle id="S_N_10" type="standard_car" route="S_N" depart="81.0" departLane="random" departSpeed="10" />
<vehicle id="S_N_11" type="standard_car" route="S_N" depart="88.0" departLane="random" departSpeed="10" />
<vehicle id="S_N_12" type="standard_car" route="S_N" depart="90.0" departLane="random" departSpeed="10" />
<vehicle id="N_E_13" type="standard_car" route="N_E" depart="101.0" departLane="random" departSpeed="10" />
<vehicle id="W_E_14" type="standard_car" route="W_E" depart="108.0" departLane="random" departSpeed="10" />
<vehicle id="N_E_15" type="standard_car" route="N_E" depart="111.0" departLane="random" departSpeed="10" />
<vehicle id="S_N_16" type="standard_car" route="S_N" depart="112.0" departLane="random" departSpeed="10" />
<vehicle id="S_N_17" type="standard_car" route="S_N" depart="115.0" departLane="random" departSpeed="10" />
<vehicle id="N_S_18" type="standard_car" route="N_S" depart="120.0" departLane="random" departSpeed="10" />
<vehicle id="S_E_19" type="standard_car" route="S_E" depart="122.0" departLane="random" departSpeed="10" />
<vehicle id="N_E_20" type="standard_car" route="N_E" depart="123.0" departLane="random" departSpeed="10" />
<vehicle id="S_E_21" type="standard_car" route="S_E" depart="123.0" departLane="random" departSpeed="10" />
<vehicle id="N_S_22" type="standard_car" route="N_S" depart="125.0" departLane="random" departSpeed="10" />
<vehicle id="S_N_23" type="standard_car" route="S_N" depart="126.0" departLane="random" departSpeed="10" />
<vehicle id="N_S_24" type="standard_car" route="N_S" depart="127.0" departLane="random" departSpeed="10" />
<vehicle id="N_S_25" type="standard_car" route="N_S" depart="127.0" departLane="random" departSpeed="10" />
<vehicle id="N_E_26" type="standard_car" route="N_E" depart="128.0" departLane="random" departSpeed="10" />
<vehicle id="S_E_27" type="standard_car" route="S_E" depart="132.0" departLane="random" departSpeed="10" />
<vehicle id="N_S_28" type="standard_car" route="N_S" depart="133.0" departLane="random" departSpeed="10" />
<vehicle id="S_N_29" type="standard_car" route="S_N" depart="133.0" departLane="random" departSpeed="10" />
<vehicle id="S_N_30" type="standard_car" route="S_N" depart="135.0" departLane="random" departSpeed="10" />
<vehicle id="S_W_31" type="standard_car" route="S_W" depart="136.0" departLane="random" departSpeed="10" />
<vehicle id="N_S_32" type="standard_car" route="N_S" depart="137.0" departLane="random" departSpeed="10" />
<vehicle id="N_S_33" type="standard_car" route="N_S" depart="138.0" departLane="random" departSpeed="10" />
<vehicle id="S_N_34" type="standard_car" route="S_N" depart="140.0" departLane="random" departSpeed="10" />
<vehicle id="N_S_35" type="standard_car" route="N_S" depart="141.0" departLane="random" departSpeed="10" />
<vehicle id="N_S_36" type="standard_car" route="N_S" depart="144.0" departLane="random" departSpeed="10" />
<vehicle id="N_S_37" type="standard_car" route="N_S" depart="150.0" departLane="random" departSpeed="10" />
<vehicle id="S_E_38" type="standard_car" route="S_E" depart="151.0" departLane="random" departSpeed="10" />
<vehicle id="N_S_39" type="standard_car" route="N_S" depart="154.0" departLane="random" departSpeed="10" />
<vehicle id="E_W_40" type="standard_car" route="E_W" depart="156.0" departLane="random" departSpeed="10" />
<vehicle id="N_S_41" type="standard_car" route="N_S" depart="157.0" departLane="random" departSpeed="10" />
<vehicle id="N_W_42" type="standard_car" route="N_W" depart="157.0" departLane="random" departSpeed="10" />
<vehicle id="N_S_43" type="standard_car" route="N_S" depart="158.0" departLane="random" departSpeed="10" />
<vehicle id="N_S_44" type="standard_car" route="N_S" depart="176.0" departLane="random" departSpeed="10" />
<vehicle id="S_N_45" type="standard_car" route="S_N" depart="178.0" departLane="random" departSpeed="10" />
<vehicle id="N_S_46" type="standard_car" route="N_S" depart="178.0" departLane="random" departSpeed="10" />
<vehicle id="N_W_47" type="standard_car" route="N_W" depart="183.0" departLane="random" departSpeed="10" />
<vehicle id="N_S_48" type="standard_car" route="N_S" depart="187.0" departLane="random" departSpeed="10" />
<vehicle id="S_N_49" type="standard_car" route="S_N" depart="187.0" departLane="random" departSpeed="10" />
<vehicle id="N_S_50" type="standard_car" route="N_S" depart="192.0" departLane="random" departSpeed="10" />
<vehicle id="E_W_51" type="standard_car" route="E_W" depart="193.0" departLane="random" departSpeed="10" />
<vehicle id="W_E_52" type="standard_car" route="W_E" depart="201.0" departLane="random" departSpeed="10" />
<vehicle id="W_E_53" type="standard_car" route="W_E" depart="201.0" departLane="random" departSpeed="10" />
<vehicle id="N_S_54" type="standard_car" route="N_S" depart="203.0" departLane="random" departSpeed="10" />
<vehicle id="S_N_55" type="standard_car" route="S_N" depart="205.0" departLane="random" departSpeed="10" />
<vehicle id="W_E_56" type="standard_car" route="W_E" depart="205.0" departLane="random" departSpeed="10" />
<vehicle id="E_W_57" type="standard_car" route="E_W" depart="206.0" departLane="random" departSpeed="10" />
<vehicle id="E_W_58" type="standard_car" route="E_W" depart="207.0" departLane="random" departSpeed="10" />
<vehicle id="E_W_59" type="standard_car" route="E_W" depart="208.0" departLane="random" departSpeed="10" />
<vehicle id="N_S_60" type="standard_car" route="N_S" depart="210.0" departLane="random" departSpeed="10" />
<vehicle id="S_W_61" type="standard_car" route="S_W" depart="212.0" departLane="random" departSpeed="10" />
<vehicle id="S_N_62" type="standard_car" route="S_N" depart="213.0" departLane="random" departSpeed="10" />
<vehicle id="S_N_63" type="standard_car" route="S_N" depart="213.0" departLane="random" departSpeed="10" />
<vehicle id="S_N_64" type="standard_car" route="S_N" depart="215.0" departLane="random" departSpeed="10" />
<vehicle id="N_S_65" type="standard_car" route="N_S" depart="216.0" departLane="random" departSpeed="10" />
<vehicle id="S_N_66" type="standard_car" route="S_N" depart="216.0" departLane="random" departSpeed="10" />
<vehicle id="N_W_67" type="standard_car" route="N_W" depart="217.0" departLane="random" departSpeed="10" />
<vehicle id="S_E_68" type="standard_car" route="S_E" depart="217.0" departLane="random" departSpeed="10" />
<vehicle id="N_E_69" type="standard_car" route="N_E" depart="219.0" departLane="random" departSpeed="10" />
<vehicle id="S_N_70" type="standard_car" route="S_N" depart="223.0" departLane="random" departSpeed="10" />
<vehicle id="S_N_71" type="standard_car" route="S_N" depart="223.0" departLane="random" departSpeed="10" />
<vehicle id="S_N_72" type="standard_car" route="S_N" depart="223.0" departLane="random" departSpeed="10" />
<vehicle id="N_S_73" type="standard_car" route="N_S" depart="227.0" departLane="random" departSpeed="10" />
<vehicle id="N_S_74" type="standard_car" route="N_S" depart="228.0" departLane="random" departSpeed="10" />
<vehicle id="N_S_75" type="standard_car" route="N_S" depart="232.0" departLane="random" departSpeed="10" />
<vehicle id="S_N_76" type="standard_car" route="S_N" depart="232.0" departLane="random" departSpeed="10" />
<vehicle id="N_E_77" type="standard_car" route="N_E" depart="237.0" departLane="random" departSpeed="10" />
<vehicle id="N_S_78" type="standard_car" route="N_S" depart="237.0" departLane="random" departSpeed="10" />
<vehicle id="S_N_79" type="standard_car" route="S_N" depart="237.0" departLane="random" departSpeed="10" />
<vehicle id="N_S_80" type="standard_car" route="N_S" depart="238.0" departLane="random" departSpeed="10" />
<vehicle id="W_S_81" type="standard_car" route="W_S" depart="240.0" departLane="random" departSpeed="10" />
<vehicle id="N_S_82" type="standard_car" route="N_S" depart="244.0" departLane="random" departSpeed="10" />
<vehicle id="E_W_83" type="standard_car" route="E_W" depart="244.0" departLane="random" departSpeed="10" />
<vehicle id="N_S_84" type="standard_car" route="N_S" depart="246.0" departLane="random" departSpeed="10" />
<vehicle id="N_S_85" type="standard_car" route="N_S" depart="247.0" departLane="random" departSpeed="10" />
<vehicle id="S_N_86" type="standard_car" route="S_N" depart="253.0" departLane="random" departSpeed="10" />
<vehicle id="N_S_87" type="standard_car" route="N_S" depart="256.0" departLane="random" departSpeed="10" />
<vehicle id="S_N_88" type="standard_car" route="S_N" depart="259.0" departLane="random" departSpeed="10" />
<vehicle id="S_N_89" type="standard_car" route="S_N" depart="260.0" departLane="random" departSpeed="10" />
<vehicle id="W_E_90" type="standard_car" route="W_E" depart="260.0" departLane="random" departSpeed="10" />
<vehicle id="W_E_91" type="standard_car" route="W_E" depart="263.0" departLane="random" departSpeed="10" />
<vehicle id="W_E_92" type="standard_car" route="W_E" depart="266.0" departLane="random" departSpeed="10" />
<vehicle id="S_N_93" type="standard_car" route="S_N" depart="266.0" departLane="random" departSpeed="10" />
<vehicle id="S_N_94" type="standard_car" route="S_N" depart="267.0" departLane="random" departSpeed="10" />
<vehicle id="N_S_95" type="standard_car" route="N_S" depart="267.0" departLane="random" departSpeed="10" />
<vehicle id="N_S_96" type="standard_car" route="N_S" depart="270.0" departLane="random" departSpeed="10" />
<vehicle id="E_W_97" type="standard_car" route="E_W" depart="271.0" departLane="random" departSpeed="10" />
<vehicle id="S_W_98" type="standard_car" route="S_W" depart="272.0" departLane="random" departSpeed="10" />
<vehicle id="S_N_99" type="standard_car" route="S_N" depart="272.0" departLane="random" departSpeed="10" />
<vehicle id="S_W_100" type="standard_car" route="S_W" depart="272.0" departLane="random" departSpeed="10" />
<vehicle id="N_S_101" type="standard_car" route="N_S" depart="275.0" departLane="random" departSpeed="10" />
<vehicle id="N_S_102" type="standard_car" route="N_S" depart="279.0" departLane="random" departSpeed="10" />
<vehicle id="S_N_103" type="standard_car" route="S_N" depart="281.0" departLane="random" departSpeed="10" />
<vehicle id="N_S_104" type="standard_car" route="N_S" depart="284.0" departLane="random" departSpeed="10" />
<vehicle id="S_N_105" type="standard_car" route="S_N" depart="286.0" departLane="random" departSpeed="10" />
<vehicle id="S_N_106" type="standard_car" route="S_N" depart="289.0" departLane="random" departSpeed="10" />
<vehicle id="S_N_107" type="standard_car" route="S_N" depart="289.0" departLane="random" departSpeed="10" />
<vehicle id="N_S_108" type="standard_car" route="N_S" depart="290.0" departLane="random" departSpeed="10" />
<vehicle id="N_S_109" type="standard_car" route="N_S" depart="292.0" departLane="random" departSpeed="10" />
<vehicle id="N_S_110" type="standard_car" route="N_S" depart="297.0" departLane="random" departSpeed="10" />
<vehicle id="S_N_111" type="standard_car" route="S_N" depart="297.0" departLane="random" departSpeed="10" />
<vehicle id="N_S_112" type="standard_car" route="N_S" depart="298.0" departLane="random" departSpeed="10" />
<vehicle id="S_N_113" type="standard_car" route="S_N" depart="298.0" departLane="random" departSpeed="10" />
<vehicle id="N_S_114" type="standard_car" route="N_S" depart="300.0" departLane="random" departSpeed="10" />
<vehicle id="S_N_115" type="standard_car" route="S_N" depart="302.0" departLane="random" departSpeed="10" />
<vehicle id="S_E_116" type="standard_car" route="S_E" depart="302.0" departLane="random" departSpeed="10" />
<vehicle id="S_W_117" type="standard_car" route="S_W" depart="303.0" departLane="random" departSpeed="10" />
<vehicle id="S_N_118" type="standard_car" route="S_N" depart="304.0" departLane="random" departSpeed="10" />
<vehicle id="S_W_119" type="standard_car" route="S_W" depart="307.0" departLane="random" departSpeed="10" />
<vehicle id="W_E_120" type="standard_car" route="W_E" depart="309.0" departLane="random" departSpeed="10" />
<vehicle id="N_S_121" type="standard_car" route="N_S" depart="309.0" departLane="random" departSpeed="10" />
<vehicle id="N_W_122" type="standard_car" route="N_W" depart="311.0" departLane="random" departSpeed="10" />
<vehicle id="N_S_123" type="standard_car" route="N_S" depart="312.0" departLane="random" departSpeed="10" />
<vehicle id="N_E_124" type="standard_car" route="N_E" depart="314.0" departLane="random" departSpeed="10" />
<vehicle id="S_N_125" type="standard_car" route="S_N" depart="320.0" departLane="random" departSpeed="10" />
<vehicle id="N_W_126" type="standard_car" route="N_W" depart="320.0" departLane="random" departSpeed="10" />
<vehicle id="W_E_127" type="standard_car" route="W_E" depart="321.0" departLane="random" departSpeed="10" />
<vehicle id="S_N_128" type="standard_car" route="S_N" depart="322.0" departLane="random" departSpeed="10" />
<vehicle id="N_S_129" type="standard_car" route="N_S" depart="323.0" departLane="random" departSpeed="10" />
<vehicle id="E_W_130" type="standard_car" route="E_W" depart="326.0" departLane="random" departSpeed="10" />
<vehicle id="W_S_131" type="standard_car" route="W_S" depart="327.0" departLane="random" departSpeed="10" />
<vehicle id="N_W_132" type="standard_car" route="N_W" depart="329.0" departLane="random" departSpeed="10" />
<vehicle id="N_E_133" type="standard_car" route="N_E" depart="330.0" departLane="random" departSpeed="10" />
<vehicle id="N_E_134" type="standard_car" route="N_E" depart="331.0" departLane="random" departSpeed="10" />
<vehicle id="S_N_135" type="standard_car" route="S_N" depart="332.0" departLane="random" departSpeed="10" />
<vehicle id="N_S_136" type="standard_car" route="N_S" depart="333.0" departLane="random" departSpeed="10" />
<vehicle id="W_E_137" type="standard_car" route="W_E" depart="333.0" departLane="random" departSpeed="10" />
<vehicle id="S_N_138" type="standard_car" route="S_N" depart="337.0" departLane="random" departSpeed="10" />
<vehicle id="E_W_139" type="standard_car" route="E_W" depart="340.0" departLane="random" departSpeed="10" />
<vehicle id="S_W_140" type="standard_car" route="S_W" depart="340.0" departLane="random" departSpeed="10" />
<vehicle id="N_S_141" type="standard_car" route="N_S" depart="341.0" departLane="random" departSpeed="10" />
<vehicle id="N_S_142" type="standard_car" route="N_S" depart="342.0" departLane="random" departSpeed="10" />
<vehicle id="N_E_143" type="standard_car" route="N_E" depart="342.0" departLane="random" departSpeed="10" />
<vehicle id="E_W_144" type="standard_car" route="E_W" depart="344.0" departLane="random" departSpeed="10" />
<vehicle id="E_W_145" type="standard_car" route="E_W" depart="346.0" departLane="random" departSpeed="10" />
<vehicle id="S_E_146" type="standard_car" route="S_E" depart="346.0" departLane="random" departSpeed="10" />
<vehicle id="N_S_147" type="standard_car" route="N_S" depart="347.0" departLane="random" departSpeed="10" />
<vehicle id="E_W_148" type="standard_car" route="E_W" depart="347.0" departLane="random" departSpeed="10" />
<vehicle id="N_S_149" type="standard_car" route="N_S" depart="350.0" departLane="random" departSpeed="10" />
<vehicle id="N_E_150" type="standard_car" route="N_E" depart="352.0" departLane="random" departSpeed="10" />
<vehicle id="N_S_151" type="standard_car" route="N_S" depart="352.0" departLane="random" departSpeed="10" />
<vehicle id="E_W_152" type="standard_car" route="E_W" depart="353.0" departLane="random" departSpeed="10" />
<vehicle id="N_S_153" type="standard_car" route="N_S" depart="353.0" departLane="random" departSpeed="10" />
<vehicle id="S_N_154" type="standard_car" route="S_N" depart="353.0" departLane="random" departSpeed="10" />
<vehicle id="S_N_155" type="standard_car" route="S_N" depart="354.0" departLane="random" departSpeed="10" />
<vehicle id="N_S_156" type="standard_car" route="N_S" depart="354.0" departLane="random" departSpeed="10" />
<vehicle id="E_S_157" type="standard_car" route="E_S" depart="356.0" departLane="random" departSpeed="10" />
<vehicle id="S_N_158" type="standard_car" route="S_N" depart="357.0" departLane="random" departSpeed="10" />
<vehicle id="N_S_159" type="standard_car" route="N_S" depart="358.0" departLane="random" departSpeed="10" />
<vehicle id="E_W_160" type="standard_car" route="E_W" depart="358.0" departLane="random" departSpeed="10" />
<vehicle id="S_N_161" type="standard_car" route="S_N" depart="359.0" departLane="random" departSpeed="10" />
<vehicle id="S_N_162" type="standard_car" route="S_N" depart="360.0" departLane="random" departSpeed="10" />
<vehicle id="S_W_163" type="standard_car" route="S_W" depart="360.0" departLane="random" departSpeed="10" />
<vehicle id="S_N_164" type="standard_car" route="S_N" depart="360.0" departLane="random" departSpeed="10" />
<vehicle id="S_N_165" type="standard_car" route="S_N" depart="360.0" departLane="random" departSpeed="10" />
<vehicle id="N_S_166" type="standard_car" route="N_S" depart="361.0" departLane="random" departSpeed="10" />
<vehicle id="S_W_167" type="standard_car" route="S_W" depart="362.0" departLane="random" departSpeed="10" />
<vehicle id="N_S_168" type="standard_car" route="N_S" depart="364.0" departLane="random" departSpeed="10" />
<vehicle id="W_E_169" type="standard_car" route="W_E" depart="364.0" departLane="random" departSpeed="10" />
<vehicle id="N_S_170" type="standard_car" route="N_S" depart="365.0" departLane="random" departSpeed="10" />
<vehicle id="W_E_171" type="standard_car" route="W_E" depart="368.0" departLane="random" departSpeed="10" />
<vehicle id="N_S_172" type="standard_car" route="N_S" depart="369.0" departLane="random" departSpeed="10" />
<vehicle id="N_S_173" type="standard_car" route="N_S" depart="372.0" departLane="random" departSpeed="10" />
<vehicle id="S_N_174" type="standard_car" route="S_N" depart="372.0" departLane="random" departSpeed="10" />
<vehicle id="S_E_175" type="standard_car" route="S_E" depart="373.0" departLane="random" departSpeed="10" />
<vehicle id="E_W_176" type="standard_car" route="E_W" depart="373.0" departLane="random" departSpeed="10" />
<vehicle id="N_S_177" type="standard_car" route="N_S" depart="373.0" departLane="random" departSpeed="10" />
<vehicle id="E_W_178" type="standard_car" route="E_W" depart="374.0" departLane="random" departSpeed="10" />
<vehicle id="N_S_179" type="standard_car" route="N_S" depart="374.0" departLane="random" departSpeed="10" />
<vehicle id="W_E_180" type="standard_car" route="W_E" depart="376.0" departLane="random" departSpeed="10" />
<vehicle id="N_S_181" type="standard_car" route="N_S" depart="376.0" departLane="random" departSpeed="10" />
<vehicle id="E_W_182" type="standard_car" route="E_W" depart="376.0" departLane="random" departSpeed="10" />
<vehicle id="S_N_183" type="standard_car" route="S_N" depart="377.0" departLane="random" departSpeed="10" />
<vehicle id="E_W_184" type="standard_car" route="E_W" depart="377.0" departLane="random" departSpeed="10" />
<vehicle id="S_N_185" type="standard_car" route="S_N" depart="378.0" departLane="random" departSpeed="10" />
<vehicle id="N_S_186" type="standard_car" route="N_S" depart="384.0" departLane="random" departSpeed="10" />
<vehicle id="S_N_187" type="standard_car" route="S_N" depart="384.0" departLane="random" departSpeed="10" />
<vehicle id="S_N_188" type="standard_car" route="S_N" depart="385.0" departLane="random" departSpeed="10" />
<vehicle id="N_S_189" type="standard_car" route="N_S" depart="385.0" departLane="random" departSpeed="10" />
<vehicle id="N_S_190" type="standard_car" route="N_S" depart="385.0" departLane="random" departSpeed="10" />
<vehicle id="E_W_191" type="standard_car" route="E_W" depart="386.0" departLane="random" departSpeed="10" />
<vehicle id="N_S_192" type="standard_car" route="N_S" depart="390.0" departLane="random" departSpeed="10" />
<vehicle id="S_N_193" type="standard_car" route="S_N" depart="391.0" departLane="random" departSpeed="10" />
<vehicle id="N_S_194" type="standard_car" route="N_S" depart="391.0" departLane="random" departSpeed="10" />
<vehicle id="N_S_195" type="standard_car" route="N_S" depart="391.0" departLane="random" departSpeed="10" />
<vehicle id="N_S_196" type="standard_car" route="N_S" depart="393.0" departLane="random" departSpeed="10" />
<vehicle id="W_E_197" type="standard_car" route="W_E" depart="393.0" departLane="random" departSpeed="10" />
<vehicle id="N_S_198" type="standard_car" route="N_S" depart="393.0" departLane="random" departSpeed="10" />
<vehicle id="S_N_199" type="standard_car" route="S_N" depart="393.0" departLane="random" departSpeed="10" />
<vehicle id="E_S_200" type="standard_car" route="E_S" depart="394.0" departLane="random" departSpeed="10" />
<vehicle id="W_E_201" type="standard_car" route="W_E" depart="395.0" departLane="random" departSpeed="10" />
<vehicle id="N_S_202" type="standard_car" route="N_S" depart="396.0" departLane="random" departSpeed="10" />
<vehicle id="S_N_203" type="standard_car" route="S_N" depart="397.0" departLane="random" departSpeed="10" />
<vehicle id="N_W_204" type="standard_car" route="N_W" depart="398.0" departLane="random" departSpeed="10" />
<vehicle id="S_N_205" type="standard_car" route="S_N" depart="399.0" departLane="random" departSpeed="10" />
<vehicle id="N_S_206" type="standard_car" route="N_S" depart="401.0" departLane="random" departSpeed="10" />
<vehicle id="N_S_207" type="standard_car" route="N_S" depart="403.0" departLane="random" departSpeed="10" />
<vehicle id="S_W_208" type="standard_car" route="S_W" depart="405.0" departLane="random" departSpeed="10" />
<vehicle id="S_W_209" type="standard_car" route="S_W" depart="406.0" departLane="random" departSpeed="10" />
<vehicle id="S_N_210" type="standard_car" route="S_N" depart="406.0" departLane="random" departSpeed="10" />
<vehicle id="S_N_211" type="standard_car" route="S_N" depart="410.0" departLane="random" departSpeed="10" />
<vehicle id="E_W_212" type="standard_car" route="E_W" depart="413.0" departLane="random" departSpeed="10" />
<vehicle id="N_S_213" type="standard_car" route="N_S" depart="414.0" departLane="random" departSpeed="10" />
<vehicle id="S_N_214" type="standard_car" route="S_N" depart="415.0" departLane="random" departSpeed="10" />
<vehicle id="S_N_215" type="standard_car" route="S_N" depart="417.0" departLane="random" departSpeed="10" />
<vehicle id="S_N_216" type="standard_car" route="S_N" depart="418.0" departLane="random" departSpeed="10" />
<vehicle id="S_N_217" type="standard_car" route="S_N" depart="418.0" departLane="random" departSpeed="10" />
<vehicle id="N_S_218" type="standard_car" route="N_S" depart="418.0" departLane="random" departSpeed="10" />
<vehicle id="E_W_219" type="standard_car" route="E_W" depart="419.0" departLane="random" departSpeed="10" />
<vehicle id="W_E_220" type="standard_car" route="W_E" depart="420.0" departLane="random" departSpeed="10" />
<vehicle id="S_N_221" type="standard_car" route="S_N" depart="420.0" departLane="random" departSpeed="10" />
<vehicle id="S_N_222" type="standard_car" route="S_N" depart="421.0" departLane="random" departSpeed="10" />
<vehicle id="S_N_223" type="standard_car" route="S_N" depart="421.0" departLane="random" departSpeed="10" />
<vehicle id="N_E_224" type="standard_car" route="N_E" depart="422.0" departLane="random" departSpeed="10" />
<vehicle id="S_N_225" type="standard_car" route="S_N" depart="422.0" departLane="random" departSpeed="10" />
<vehicle id="W_E_226" type="standard_car" route="W_E" depart="423.0" departLane="random" departSpeed="10" />
<vehicle id="N_E_227" type="standard_car" route="N_E" depart="423.0" departLane="random" departSpeed="10" />
<vehicle id="S_N_228" type="standard_car" route="S_N" depart="424.0" departLane="random" departSpeed="10" />
<vehicle id="E_W_229" type="standard_car" route="E_W" depart="428.0" departLane="random" departSpeed="10" />
<vehicle id="S_N_230" type="standard_car" route="S_N" depart="429.0" departLane="random" departSpeed="10" />
<vehicle id="N_E_231" type="standard_car" route="N_E" depart="429.0" departLane="random" departSpeed="10" />
<vehicle id="S_W_232" type="standard_car" route="S_W" depart="432.0" departLane="random" departSpeed="10" />
<vehicle id="W_E_233" type="standard_car" route="W_E" depart="433.0" departLane="random" departSpeed="10" />
<vehicle id="W_E_234" type="standard_car" route="W_E" depart="434.0" departLane="random" departSpeed="10" />
<vehicle id="N_E_235" type="standard_car" route="N_E" depart="434.0" departLane="random" departSpeed="10" />
<vehicle id="S_N_236" type="standard_car" route="S_N" depart="437.0" departLane="random" departSpeed="10" />
<vehicle id="E_W_237" type="standard_car" route="E_W" depart="437.0" departLane="random" departSpeed="10" />
<vehicle id="N_W_238" type="standard_car" route="N_W" depart="438.0" departLane="random" departSpeed="10" />
<vehicle id="N_S_239" type="standard_car" route="N_S" depart="440.0" departLane="random" departSpeed="10" />
<vehicle id="S_N_240" type="standard_car" route="S_N" depart="441.0" departLane="random" departSpeed="10" />
<vehicle id="S_N_241" type="standard_car" route="S_N" depart="448.0" departLane="random" departSpeed="10" />
<vehicle id="N_E_242" type="standard_car" route="N_E" depart="452.0" departLane="random" departSpeed="10" />
<vehicle id="E_W_243" type="standard_car" route="E_W" depart="453.0" departLane="random" departSpeed="10" />
<vehicle id="S_E_244" type="standard_car" route="S_E" depart="453.0" departLane="random" departSpeed="10" />
<vehicle id="S_N_245" type="standard_car" route="S_N" depart="456.0" departLane="random" departSpeed="10" />
<vehicle id="S_E_246" type="standard_car" route="S_E" depart="458.0" departLane="random" departSpeed="10" />
<vehicle id="N_W_247" type="standard_car" route="N_W" depart="459.0" departLane="random" departSpeed="10" />
<vehicle id="W_S_248" type="standard_car" route="W_S" depart="460.0" departLane="random" departSpeed="10" />
<vehicle id="E_S_249" type="standard_car" route="E_S" depart="462.0" departLane="random" departSpeed="10" />
<vehicle id="N_S_250" type="standard_car" route="N_S" depart="463.0" departLane="random" departSpeed="10" />
<vehicle id="W_E_251" type="standard_car" route="W_E" depart="465.0" departLane="random" departSpeed="10" />
<vehicle id="S_N_252" type="standard_car" route="S_N" depart="465.0" departLane="random" departSpeed="10" />
<vehicle id="S_N_253" type="standard_car" route="S_N" depart="465.0" departLane="random" departSpeed="10" />
<vehicle id="N_S_254" type="standard_car" route="N_S" depart="466.0" departLane="random" departSpeed="10" />
<vehicle id="W_E_255" type="standard_car" route="W_E" depart="467.0" departLane="random" departSpeed="10" />
<vehicle id="S_N_256" type="standard_car" route="S_N" depart="467.0" departLane="random" departSpeed="10" />
<vehicle id="N_S_257" type="standard_car" route="N_S" depart="470.0" departLane="random" departSpeed="10" />
<vehicle id="N_S_258" type="standard_car" route="N_S" depart="471.0" departLane="random" departSpeed="10" />
<vehicle id="S_N_259" type="standard_car" route="S_N" depart="473.0" departLane="random" departSpeed="10" />
<vehicle id="E_S_260" type="standard_car" route="E_S" depart="473.0" departLane="random" departSpeed="10" />
<vehicle id="S_N_261" type="standard_car" route="S_N" depart="473.0" departLane="random" departSpeed="10" />
<vehicle id="N_W_262" type="standard_car" route="N_W" depart="473.0" departLane="random" departSpeed="10" />
<vehicle id="S_N_263" type="standard_car" route="S_N" depart="474.0" departLane="random" departSpeed="10" />
<vehicle id="S_N_264" type="standard_car" route="S_N" depart="474.0" departLane="random" departSpeed="10" />
<vehicle id="N_S_265" type="standard_car" route="N_S" depart="474.0" departLane="random" departSpeed="10" />
<vehicle id="S_N_266" type="standard_car" route="S_N" depart="474.0" departLane="random" departSpeed="10" />
<vehicle id="S_N_267" type="standard_car" route="S_N" depart="474.0" departLane="random" departSpeed="10" />
<vehicle id="N_S_268" type="standard_car" route="N_S" depart="475.0" departLane="random" departSpeed="10" />
<vehicle id="W_E_269" type="standard_car" route="W_E" depart="475.0" departLane="random" departSpeed="10" />